19
rxn5733_path_1
C  2.4313583374023438 0.080167256295681 -0.20125967264175415
C  1.0395221710205078 -0.40661486983299255 0.24780547618865967
O  1.1468567848205566 -0.7697929739952087 1.5955920219421387
C  0.014349229633808136 0.6958082914352417 0.07347383350133896
C  -0.6684476733207703 0.9200222492218018 -1.1549125909805298
C  -1.4276825189590454 0.4504612684249878 0.0706944540143013
C  -2.012610912322998 -0.8939719796180725 0.11223634332418442
H  2.4262659549713135 0.31192275881767273 -1.1943187713623047
H  3.106997489929199 -0.667937695980072 0.03434552997350693
H  2.6931216716766357 0.9827641844749451 0.3443779945373535
H  0.7805025577545166 -1.228803038597107 -0.3152940273284912
H  0.3116789758205414 -0.7304206490516663 2.097368001937866
H  0.1357831060886383 1.4867373704910278 0.8098559379577637
H  -0.48005715012550354 0.22474656999111176 -1.9149816036224365
H  -0.8591487407684326 1.954343557357788 -1.473703145980835
H  -2.034510374069214 1.2325425148010254 0.5217561721801758
H  -1.3473305702209473 -1.6213592290878296 -0.31081900000572205
H  -2.936046838760376 -0.8565367460250854 -0.4705650806427002
H  -2.320601224899292 -1.164078950881958 1.1283483505249023
