19
rxn5733_path_3
C  2.395827531814575 0.0218394435942173 -0.28816890716552734
C  1.10532808303833 -0.3993833363056183 0.34559327363967896
O  1.4060014486312866 -0.7491240501403809 1.6831345558166504
C  0.15816934406757355 0.8213574886322021 0.15417632460594177
C  -0.6401247978210449 0.9136150479316711 -1.0031070709228516
C  -1.4928172826766968 0.43660077452659607 0.09332054108381271
C  -2.1731462478637695 -0.9021421670913696 -0.012176983058452606
H  2.2530436515808105 0.17471620440483093 -1.3537367582321167
H  3.119154453277588 -0.7617933750152588 -0.1130705401301384
H  2.7746903896331787 0.9348487257957458 0.13381531834602356
H  0.6441226005554199 -1.2707490921020508 -0.13478180766105652
H  1.0421079397201538 -0.1694144308567047 2.2418532371520996
H  -0.18168553709983826 1.2733463048934937 1.0826090574264526
H  -0.48321548104286194 0.20491355657577515 -1.8092637062072754
H  -0.7791420817375183 1.9768059253692627 -1.3386168479919434
H  -2.12226939201355 1.1797785758972168 0.4948354959487915
H  -1.4710673093795776 -1.6411287784576416 -0.32784759998321533
H  -2.9365079402923584 -0.8393527269363403 -0.7680793404579163
H  -2.618468999862671 -1.2047343254089355 0.9195119738578796
