19
rxn5733_path_4
C  2.40606689453125 0.04056388884782791 -0.296508252620697
C  1.0968413352966309 -0.33976083993911743 0.35107874870300293
O  1.3877735137939453 -0.7211117744445801 1.6461516618728638
C  0.04280806705355644 0.7311611771583557 0.22618624567985535
C  -0.5887842178344727 0.8441814184188843 -1.0808448791503906
C  -1.4478530883789062 0.46359503269195557 0.10450273752212524
C  -2.1617178916931152 -0.8632324934005737 0.046972669661045074
H  2.294400930404663 0.12737524509429932 -1.3313179016113281
H  3.1515634059906006 -0.709075391292572 -0.11348269134759903
H  2.768076181411743 0.9797585010528564 0.06150688976049423
H  0.7241951823234558 -1.2674511671066284 -0.1258115917444229
H  1.0436800718307495 -0.13769303262233734 2.2537617683410645
H  -0.33548519015312195 1.2059869766235352 1.075631856918335
H  -0.44553014636039734 0.07260924577713013 -1.7828080654144287
H  -0.7133966088294983 1.8942134380340576 -1.440342903137207
H  -2.179914712905884 1.2430282831192017 0.3807067573070526
H  -1.4718252420425415 -1.6316802501678467 -0.12072614580392838
H  -2.8642678260803223 -0.8569841384887695 -0.7693595886230469
H  -2.706632137298584 -1.0754841566085815 0.9147029519081116
