19
rxn5733_path_6
C  2.4301388263702393 -0.051062073558568954 -0.4060261845588684
C  1.1825642585754395 -0.3024236857891083 0.41124993562698364
O  1.5322558879852295 -0.5343803763389587 1.7240383625030518
C  0.39326632022857666 0.9071160554885864 0.3001559376716614
C  -0.5358940958976746 1.0072755813598633 -0.8442973494529724
C  -1.5439343452453613 0.4496292471885681 0.23818537592887878
C  -2.197368621826172 -0.8363650441169739 -0.13287819921970367
H  2.1854143142700195 -0.024762962013483047 -1.428246021270752
H  3.1241140365600586 -0.8464078903198242 -0.17324836552143097
H  2.8698694705963135 0.9152647852897644 -0.09246674925088882
H  0.654997706413269 -1.214098334312439 0.054933611303567886
H  1.3032113313674927 0.12548786401748657 2.214599370956421
H  -1.0416611433029175 0.3988099992275238 1.2781951427459717
H  -0.35516056418418884 0.24406112730503082 -1.661790132522583
H  -0.6813482046127319 2.0090529918670654 -1.2169508934020996
H  -2.279569387435913 1.2574244737625122 0.39054933190345764
H  -1.4531872272491455 -1.5906362533569336 -0.2881883382797241
H  -2.776702642440796 -0.7520812749862671 -1.0307066440582275
H  -2.811007261276245 -1.161904215812683 0.6628913283348083
