19
rxn5733_path_7
C  2.431990623474121 -0.08441583812236786 -0.36306309700012207
C  1.207075595855713 -0.3315935730934143 0.49233514070510864
O  1.6099151372909546 -0.6224199533462524 1.783768653869629
C  0.48806339502334595 0.9273838996887207 0.3311150074005127
C  -0.5117641091346741 0.9261686205863953 -0.7772464752197266
C  -1.6591018438339233 0.4751347303390503 0.15994514524936676
C  -2.2633073329925537 -0.8291861414909363 -0.20887142419815063
H  2.2229092121124268 -0.040061771869659424 -1.401890754699707
H  3.147566556930542 -0.8266535401344299 -0.13703653216362
H  2.8745880126953125 0.9500798583030701 -0.055815234780311584
H  0.674072802066803 -1.2338018417358398 0.13333763182163239
H  1.578029990196228 0.1680905520915985 2.2085766792297363
H  -1.1841239929199219 0.49474799633026123 1.1978821754455566
H  -0.3756662607192993 0.21929831802845 -1.6009926795959473
H  -0.6300823092460632 1.99820876121521 -1.1681729555130005
H  -2.4376585483551025 1.2735912799835205 0.20783992111682892
H  -1.4926376342773438 -1.5656776428222656 -0.3037131428718567
H  -2.823103189468384 -0.7298482656478882 -1.1108769178390503
H  -2.856766939163208 -1.169045329093933 0.61287921667099
