19
rxn5733_Average_Ts
C  2.4324541091918945 0.018463997170329094 -0.26668810844421387
C  1.0742741823196411 -0.3228197395801544 0.3927595615386963
O  1.2826392650604248 -0.7147738337516785 1.7506481409072876
C  0.2775631844997406 0.9526644945144653 0.22169241309165955
C  -0.5514528751373291 0.9703502058982849 -1.0112638473510742
C  -1.5091358423233032 0.4812832176685333 0.09219212085008621
C  -2.133394718170166 -0.8664657473564148 0.03647845610976219
H  2.3075363636016846 0.1389322429895401 -1.4049128293991089
H  3.1367998123168945 -0.7806562781333923 -0.08242377638816833
H  2.8306517601013184 0.9142163991928101 0.10510794818401337
H  0.6909672021865845 -1.2243010997772217 -0.1143980547785759
H  1.2496366500854492 -0.016145307570695877 2.232036590576172
H  -0.7920675277709961 0.7486849427223206 1.002862572669983
H  -0.40025967359542847 0.161148801445961 -1.760701298713684
H  -0.7696341872215271 1.9458708763122559 -1.434401512145996
H  -2.2097859382629395 1.2834153175354004 0.376169890165329
H  -1.4092066287994385 -1.649067759513855 -0.1827075481414795
H  -2.837109088897705 -0.8943468928337097 -0.8444547653198242
H  -2.6704764366149902 -1.146453857421875 0.8920038938522339
