19
rxn5733_r
C  2.4449219727639337 0.1259536455475424 -0.1427874654933811
C  1.055046810863263 -0.33945643745495346 0.25721986450124995
O  1.1435831466260622 -0.7746058479543741 1.6074073465250214
C  0.02618230292952368 0.7590552693794378 0.1148250993587306
C  -0.7437765243760769 0.9316151730245453 -1.1632506396344862
C  -1.455794486778275 0.46808923765182125 0.07638444066857661
C  -2.0276334682643866 -0.930583778840119 0.16337059613538849
H  2.458947314976853 0.4337739687801976 -1.1928194525853626
H  3.1700941259635274 -0.6807114751105325 -0.00023753346841269302
H  2.7548471623005337 0.9733041057160043 0.4783963893585153
H  0.7717670683719766 -1.1855353562996378 -0.39342236025098937
H  0.2393464729126144 -0.9142016704442845 1.9170973050128526
H  0.30840965598335085 1.6713208288501769 0.6393946476906387
H  -0.5810725815858886 0.1913582224376547 -1.9447985680267996
H  -0.9258882967340866 1.9361595460302392 -1.5327515258088742
H  -2.072764663030735 1.2214660937971327 0.5630953214587134
H  -1.3905017859172648 -1.6674410724746909 -0.3368203715350916
H  -3.0116109367713726 -0.9718792875703932 -0.31640697617708546
H  -2.1605571285550904 -1.2487872213745648 1.2048465648638564
