13
rxn3086_Ts
C  -1.4841184616088867 -0.45287418365478516 0.30135178565979004
C  -0.07598876953125 -0.13739585876464844 -0.670562744140625
C  -0.19072628021240234 1.0386066436767578 0.0828554630279541
O  2.1519479751586914 0.8752813339233398 0.13382220268249512
C  2.0554285049438477 -0.33060550689697266 -0.0009284019470214844
N  0.9303388595581055 -1.0246591567993164 -0.46224069595336914
H  -1.6852664947509766 -1.4161081314086914 -0.1626574993133545
H  -2.3312082290649414 0.19719505310058594 0.24815988540649414
H  -1.2523365020751953 -0.6274337768554688 1.3499168157577515
H  -0.5154209136962891 -0.13689136505126953 -1.6714022159576416
H  0.19971656799316406 1.143941879272461 1.08493971824646
H  -0.7336759567260742 1.8889846801757812 -0.32161903381347656
H  2.931300163269043 -1.018050193786621 0.08836221694946289
