13
rxn3086_Ts
C  -1.4930787086486816 -0.45658302307128906 0.3109006881713867
C  -0.09962880611419678 -0.1497955322265625 -0.6461067199707031
C  -0.19421601295471191 1.0494184494018555 0.052783966064453125
O  2.173647403717041 0.8670186996459961 0.10658454895019531
C  2.068976402282715 -0.3360633850097656 0.0028448104858398438
N  0.9341804385185242 -1.0253992080688477 -0.42391300201416016
H  -1.6806962490081787 -1.4485578536987305 -0.11968708038330078
H  -2.346505641937256 0.2060565948486328 0.2085714340209961
H  -1.249753475189209 -0.5824117660522461 1.3629674911499023
H  -0.5067691802978516 -0.16213703155517578 -1.6676912307739258
H  0.19097590446472168 1.1614742279052734 1.0690155029296875
H  -0.727604866027832 1.897414207458496 -0.3524150848388672
H  2.9304747581481934 -1.020425796508789 0.09614849090576172
