13
rxn3086_Ts
C  -1.460824966430664 -0.4740183353424072 0.3358802795410156
C  -0.10496997833251953 -0.1312873363494873 -0.6676301956176758
C  -0.1943225860595703 1.0455079078674316 0.06202507019042969
O  2.161993980407715 0.8926758766174316 0.09842109680175781
C  2.0571508407592773 -0.3259878158569336 -0.02015209197998047
N  0.9355316162109375 -1.0037882328033447 -0.512847900390625
H  -1.6439857482910156 -1.4425946474075317 -0.12315750122070312
H  -2.327855110168457 0.1762087345123291 0.2846078872680664
H  -1.2079095840454102 -0.6297664642333984 1.3788518905639648
H  -0.5536375045776367 -0.11893725395202637 -1.6646003723144531
H  0.18338489532470703 1.1487822532653809 1.0666265487670898
H  -0.7463245391845703 1.8892929553985596 -0.3398408889770508
H  2.901768684387207 -1.026086449623108 0.10181427001953125
