13
rxn3086_Ts
C  -1.4878787994384766 -0.47094619274139404 0.3332343101501465
C  -0.10296106338500977 -0.14811396598815918 -0.6451692581176758
C  -0.1845226287841797 1.0562225580215454 0.050092220306396484
O  2.1660268306732178 0.8895617723464966 0.07618904113769531
C  2.0562286376953125 -0.31901490688323975 -0.0033783912658691406
N  0.9298338890075684 -1.0149786472320557 -0.43898534774780273
H  -1.6639680862426758 -1.450488805770874 -0.11373567581176758
H  -2.341947555541992 0.16090261936187744 0.23277807235717773
H  -1.2276544570922852 -0.6028120517730713 1.3812894821166992
H  -0.5096502304077148 -0.1685178279876709 -1.6619949340820312
H  0.18024587631225586 1.1823633909225464 1.056936264038086
H  -0.7476677894592285 1.8861249685287476 -0.34572601318359375
H  2.933915376663208 -1.0003039836883545 0.07846498489379883
