13
rxn3086_Ts
C  -1.4882049560546875 -0.4551506042480469 0.29834747314453125
C  -0.07601356506347656 -0.13921737670898438 -0.6666107177734375
C  -0.19922637939453125 1.0293159484863281 0.07592201232910156
O  2.1807727813720703 0.8965682983398438 0.09683799743652344
C  2.076658248901367 -0.3229103088378906 0.0012683868408203125
N  0.9440021514892578 -1.0066413879394531 -0.45371055603027344
H  -1.6999969482421875 -1.4253597259521484 -0.1614856719970703
H  -2.3448123931884766 0.18804931640625 0.23043441772460938
H  -1.2442035675048828 -0.6325874328613281 1.3486766815185547
H  -0.4970741271972656 -0.16068649291992188 -1.6680622100830078
H  0.1768512725830078 1.1600513458251953 1.0787010192871094
H  -0.7502861022949219 1.8814258575439453 -0.3277320861816406
H  2.921529769897461 -1.0128517150878906 0.14737319946289062
