13
rxn3086_Ts
C  -1.4839123487472534 -0.4613027572631836 0.2977428436279297
C  -0.10003930330276489 -0.1533203125 -0.644658088684082
C  -0.17768758535385132 1.0505614280700684 0.0563201904296875
O  2.1437432765960693 0.8977317810058594 0.10357284545898438
C  2.0685880184173584 -0.31299400329589844 0.011542320251464844
N  0.9334423542022705 -1.0384259223937988 -0.4025707244873047
H  -1.6738358736038208 -1.4367461204528809 -0.17287349700927734
H  -2.347721815109253 0.17125892639160156 0.24198055267333984
H  -1.2336244583129883 -0.6216073036193848 1.3476886749267578
H  -0.48035550117492676 -0.16562318801879883 -1.665597915649414
H  0.15822140872478485 1.178579330444336 1.0723981857299805
H  -0.7395070791244507 1.879838466644287 -0.36493778228759766
H  2.9326891899108887 -0.987950325012207 0.1194000244140625
