13
rxn3086_Ts
C  -1.4873991012573242 -0.4632105827331543 0.30065345764160156
C  -0.08375144004821777 -0.14202594757080078 -0.6411705017089844
C  -0.1938915252685547 1.0565013885498047 0.06433868408203125
O  2.161405563354492 0.8836326599121094 0.11413002014160156
C  2.068753957748413 -0.32854652404785156 0.0072174072265625
N  0.9416408538818359 -1.015091896057129 -0.43985557556152344
H  -1.6872341632843018 -1.4288506507873535 -0.191741943359375
H  -2.3386945724487305 0.20810890197753906 0.23612403869628906
H  -1.2543108463287354 -0.6413121223449707 1.340179443359375
H  -0.48751378059387207 -0.15250205993652344 -1.6668033599853516
H  0.161879301071167 1.1420679092407227 1.092660903930664
H  -0.7267963886260986 1.900777816772461 -0.35704803466796875
H  2.9259109497070312 -1.0195512771606445 0.14130783081054688
