13
rxn3086_Ts
C  -1.4875578880310059 -0.44583702087402344 0.306255578994751
C  -0.0944209098815918 -0.13634872436523438 -0.6575864553451538
C  -0.16449260711669922 1.0513668060302734 0.06956791877746582
O  2.173677921295166 0.8751735687255859 0.06590628623962402
C  2.0652103424072266 -0.3456430435180664 -0.02176642417907715
N  0.9151058197021484 -1.0277519226074219 -0.4197951555252075
H  -1.7110676765441895 -1.4143953323364258 -0.13043570518493652
H  -2.3390603065490723 0.19851398468017578 0.23038625717163086
H  -1.2440333366394043 -0.6073179244995117 1.364807367324829
H  -0.5091609954833984 -0.14118099212646484 -1.6584255695343018
H  0.18522357940673828 1.1345462799072266 1.0940642356872559
H  -0.7152929306030273 1.8956022262573242 -0.3162184953689575
H  2.9258761405944824 -1.0367317199707031 0.07324230670928955
