13
rxn3086_Ts
C  -1.4789822101593018 -0.47416019439697266 0.31421852111816406
C  -0.09238958358764648 -0.1359872817993164 -0.6546745300292969
C  -0.21346259117126465 1.0580787658691406 0.0722360610961914
O  2.1740543842315674 0.9059305191040039 0.10555076599121094
C  2.065622329711914 -0.30352115631103516 -0.008138656616210938
N  0.9405906200408936 -1.0052804946899414 -0.4611024856567383
H  -1.6899969577789307 -1.4384994506835938 -0.1547403335571289
H  -2.341773271560669 0.17241382598876953 0.27544403076171875
H  -1.2011659145355225 -0.6631631851196289 1.35896635055542
H  -0.5145480632781982 -0.1431875228881836 -1.666520118713379
H  0.17976164817810059 1.1432037353515625 1.078291893005371
H  -0.751988410949707 1.888394832611084 -0.3306760787963867
H  2.9242796897888184 -1.0042238235473633 0.07115364074707031
