13
rxn3086_Ts
C  -1.471405029296875 -0.46341419219970703 0.32717061042785645
C  -0.10580968856811523 -0.13743877410888672 -0.6499216556549072
C  -0.19467592239379883 1.048654556274414 0.07130730152130127
O  2.164031505584717 0.8863239288330078 0.0747532844543457
C  2.063188076019287 -0.31843090057373047 -0.03858017921447754
N  0.9294962882995605 -1.0131382942199707 -0.46931028366088867
H  -1.6694395542144775 -1.441385269165039 -0.13005828857421875
H  -2.3318047523498535 0.17437458038330078 0.26590847969055176
H  -1.2198572158813477 -0.6329555511474609 1.3762195110321045
H  -0.5427689552307129 -0.13767719268798828 -1.6551563739776611
H  0.1686086654663086 1.1505365371704102 1.0897260904312134
H  -0.716315746307373 1.9065170288085938 -0.3303995132446289
H  2.9267544746398926 -1.021965503692627 0.0683450698852539
