13
rxn3086_Ts
C  -1.4759998321533203 -0.4765205383300781 0.3003075122833252
C  -0.09475135803222656 -0.128082275390625 -0.6615827083587646
C  -0.19789505004882812 1.0647249221801758 0.05774712562561035
O  2.1664505004882812 0.8967161178588867 0.09052276611328125
C  2.0549612045288086 -0.3208308219909668 0.014365196228027344
N  0.9296159744262695 -1.0114021301269531 -0.4419255256652832
H  -1.6530723571777344 -1.4483418464660645 -0.17255926132202148
H  -2.332559585571289 0.16472911834716797 0.24146366119384766
H  -1.21240234375 -0.6485772132873535 1.350426197052002
H  -0.5138454437255859 -0.13515472412109375 -1.6604403257369995
H  0.1692962646484375 1.1537256240844727 1.0660901069641113
H  -0.7529621124267578 1.8993854522705078 -0.33439064025878906
H  2.9131736755371094 -1.0103669166564941 0.14997410774230957
