13
rxn3086_Ts
C  -1.465235710144043 -0.4908013343811035 0.3331570625305176
C  -0.10583209991455078 -0.1382293701171875 -0.6437520980834961
C  -0.2181987762451172 1.0567240715026855 0.06973743438720703
O  2.1432151794433594 0.9236431121826172 0.08327531814575195
C  2.071822166442871 -0.2935299873352051 -0.02735614776611328
N  0.9414825439453125 -1.0136337280273438 -0.4377446174621582
H  -1.6461067199707031 -1.4695711135864258 -0.1276693344116211
H  -2.3432369232177734 0.14195489883422852 0.2632460594177246
H  -1.2195768356323242 -0.6544995307922363 1.3855071067810059
H  -0.5135049819946289 -0.15125703811645508 -1.6636605262756348
H  0.16924285888671875 1.155613899230957 1.0859112739562988
H  -0.7635774612426758 1.8915119171142578 -0.3330974578857422
H  2.949512481689453 -0.9579257965087891 0.012444019317626953
