13
rxn3086_Ts
C  -1.4725878238677979 -0.48051464557647705 0.30554866790771484
C  -0.10518567264080048 -0.137900710105896 -0.6496610641479492
C  -0.20014743506908417 1.0492684841156006 0.0710897445678711
O  2.1488001346588135 0.9097735285758972 0.11243438720703125
C  2.0640063285827637 -0.30364716053009033 -0.012761116027832031
N  0.945289671421051 -1.0023574829101562 -0.466949462890625
H  -1.6411917209625244 -1.4758446216583252 -0.13810443878173828
H  -2.3522439002990723 0.14592725038528442 0.22574901580810547
H  -1.236051321029663 -0.6281145811080933 1.3630857467651367
H  -0.5156986117362976 -0.13544988632202148 -1.6629314422607422
H  0.17194139957427979 1.1256520748138428 1.0853805541992188
H  -0.7543396353721619 1.8930928707122803 -0.3128929138183594
H  2.947408676147461 -0.959884524345398 0.08002281188964844
