13
rxn3086_Ts
C  -1.4689276218414307 -0.44865989685058594 0.27751731872558594
C  -0.07334780693054199 -0.1390838623046875 -0.6605572700500488
C  -0.1933208703994751 1.0388832092285156 0.0690298080444336
O  2.1489524841308594 0.8778152465820312 0.16679143905639648
C  2.0585083961486816 -0.32849884033203125 0.039302825927734375
N  0.9394947290420532 -1.0208358764648438 -0.4203965663909912
H  -1.6873446702957153 -1.4075965881347656 -0.18547749519348145
H  -2.341630220413208 0.20526695251464844 0.21530628204345703
H  -1.2491589784622192 -0.6256904602050781 1.3336634635925293
H  -0.4861907958984375 -0.16414833068847656 -1.6693980693817139
H  0.15501272678375244 1.1409778594970703 1.0928153991699219
H  -0.7242482900619507 1.8917312622070312 -0.3584730625152588
H  2.922201633453369 -1.0201435089111328 0.09987592697143555
