13
rxn3086_path_4
C  -1.5897080898284912 -0.39323341846466064 0.3188055455684662
C  0.02733081579208374 -0.21431095898151398 -0.8018951416015625
C  -0.27074873447418213 0.861494243144989 0.09072887152433395
O  2.203216314315796 0.9024165272712708 0.4017055332660675
C  2.0896763801574707 -0.2628350257873535 0.010054175741970539
N  1.1611039638519287 -0.8581011295318604 -0.6921588182449341
H  -2.0385282039642334 -1.0302724838256836 -0.3463491201400757
H  -2.331749439239502 0.3422335386276245 0.6433940529823303
H  -1.2525365352630615 -1.0105738639831543 1.1840795278549194
H  -0.37053823471069336 -0.18812453746795654 -1.8121927976608276
H  -0.03846655786037445 1.0094025135040283 1.0949218273162842
H  -0.3986054062843323 1.8224035501480103 -0.44317054748535156
H  2.809553861618042 -0.9804990887641907 0.3520767092704773
