13
rxn3086_path_8
C  -1.736151099205017 -0.3281237781047821 0.47641050815582275
C  0.23065423965454102 -0.1736789047718048 -0.9789040684700012
C  -0.5904432535171509 0.6213024854660034 -0.03079756535589695
O  2.759768009185791 1.0206949710845947 0.25761115550994873
C  2.306899309158325 -0.11666972190141678 0.08862107992172241
N  1.4579662084579468 -0.5429373383522034 -0.777405858039856
H  -2.274467706680298 -0.6619289517402649 -0.3349107503890991
H  -2.359478235244751 0.2916383743286133 1.0566319227218628
H  -1.350845217704773 -1.1432206630706787 1.0614163875579834
H  -0.3159453868865967 -0.4941919445991516 -1.8191947937011719
H  0.009135514497756958 0.9190874099731445 0.8354015350341797
H  -0.8565555810928345 1.5022143125534058 -0.6014912128448486
H  2.7194631099700928 -0.8941861987113953 0.7666114568710327
