13
rxn3086_path_0
C  -1.4390993118286133 -0.6500009894371033 0.2589874565601349
C  -0.29045605659484863 -0.13173730671405792 -0.5167978405952454
C  0.27135348320007324 1.1472148895263672 0.07163538783788681
O  1.7649539709091187 0.9266132712364197 0.027180418372154236
C  1.869075894355774 -0.3303506076335907 -0.024560831487178802
N  0.8391836285591125 -1.0256381034851074 -0.5135429501533508
H  -1.8767112493515015 -1.5260149240493774 -0.14562928676605225
H  -2.2493667602539062 0.05402562767267227 0.36545416712760925
H  -1.197222352027893 -0.9413770437240601 1.322259545326233
H  -0.6458595395088196 0.04011703282594681 -1.5303523540496826
H  0.04000347852706909 1.2566941976547241 1.109440565109253
H  0.12719635665416718 2.042419672012329 -0.5101779699325562
H  2.7869486808776855 -0.8619658946990967 0.08610378205776215
