13
rxn3086_path_2
C  -1.3641507625579834 -0.6690096259117126 0.3460842967033386
C  -0.18872851133346558 -0.21941184997558594 -0.6345936059951782
C  -0.05441170930862427 1.0104283094406128 0.056890275329351425
O  1.9738349914550781 1.0271973609924316 0.0257581677287817
C  1.9581711292266846 -0.16598500311374664 -0.11875339597463608
N  0.9801388382911682 -0.9669286012649536 -0.5312279462814331
H  -1.9216519594192505 -1.384269118309021 -0.10975035279989243
H  -2.1757473945617676 0.14058996737003326 0.5586707592010498
H  -1.068112850189209 -0.9451082348823547 1.3388558626174927
H  -0.5557714104652405 -0.09927278757095337 -1.6482081413269043
H  0.044813863933086395 1.1829067468643188 1.0556755065917969
H  -0.40839406847953796 1.907065510749817 -0.5367746353149414
H  2.7800097465515137 -0.8182024359703064 0.19737328588962555
