13
rxn3086_path_4
C  -1.6189213991165161 -0.3397535979747772 0.3955616056919098
C  0.1379939764738083 -0.27493739128112793 -0.8480633497238159
C  -0.38389742374420166 0.7397854924201965 0.08803035318851471
O  2.168386936187744 1.0106409788131714 0.2535749077796936
C  2.120203733444214 -0.22544026374816895 0.07182775437831879
N  1.3223798274993896 -0.6819472908973694 -0.8658009171485901
H  -2.0267105102539062 -1.113344669342041 -0.268661767244339
H  -2.3823907375335693 0.2719826400279999 0.7256816625595093
H  -1.1950174570083618 -0.9584437608718872 1.176774024963379
H  -0.444114089012146 -0.25308912992477417 -1.7834872007369995
H  0.06916789710521698 0.9767728447914124 1.0166513919830322
H  -0.564148485660553 1.742918848991394 -0.45096924901008606
H  2.797067642211914 -0.8951447606086731 0.4888809621334076
