13
rxn3086_r
C  -1.455799445210395 -0.7010624132742803 0.2689012470855761
C  -0.2822444031249941 -0.12338186006460063 -0.5126781972903938
C  0.28900287855487594 1.181976752995873 0.09409329954440279
O  1.6843364435558223 0.8962180261250459 0.31067998642157807
C  1.8444846239031263 -0.39451192438167487 -0.06072745204972421
N  0.8636070679648794 -1.0474944592677953 -0.5201268472993321
H  -1.7753268711242847 -1.6551158455897914 -0.16030549789482962
H  -2.311048964714834 -0.015877993024578905 0.2526613968895063
H  -1.1756610104475937 -0.8756859188880213 1.3133992859401846
H  -0.5943312222087668 0.032839971579801765 -1.5522583488928428
H  -0.15974863253291122 1.4324136935204252 1.0610248547255665
H  0.21904106908970886 2.049715817243706 -0.5658896334543012
H  2.852318899016971 -0.7786491054260997 0.07212053514403564
